/*--------------------------------*- C++ -*----------------------------------*\
| =========                 |                                                 |
| \\      /  F ield         | OpenFOAM: The Open Source CFD Toolbox           |
|  \\    /   O peration     | Version:  v1812                                 |
|   \\  /    A nd           | Web:      www.OpenFOAM.com                      |
|    \\/     M anipulation  |                                                 |
\*---------------------------------------------------------------------------*/
FoamFile
{
    version     2.0;
    format      ascii;
    class       polyBoundaryMesh;
    location    "constant/polyMesh";
    object      boundary;
}
// * * * * * * * * * * * * * * * * * * * * * * * * * * * * * * * * * * * * * //

7
(
    b2-symmetry1
    {
        type            symmetry;
        inGroups        1(symmetry);
        nFaces          10947;
        startFace       21676;
    }
    b3-symmetry2
    {
        type            symmetry;
        inGroups        1(symmetry);
        nFaces          10947;
        startFace       32623;
    }
    b4-inlet
    {
        type            patch;
        physicalType    patch;
        nFaces          108;
        startFace       43570;
    }
    b5-outlet
    {
        type            patch;
        physicalType    patch;
        nFaces          0;
        startFace       43678;
    }
    b6-humpWall
    {
        type            wall;
        inGroups        1(wall);
        nFaces          96;
        startFace       43678;
    }
    b7-topWall
    {
        type            wall;
        inGroups        1(wall);
        nFaces          110;
        startFace       43774;
    }
    procBoundary2to3
    {
        type            processor;
        inGroups        1(processor);
        nFaces          122;
        startFace       43884;
        matchTolerance  0.0001;
        transform       unknown;
        myProcNo        2;
        neighbProcNo    3;
    }
)

// ************************************************************************* //
