/*--------------------------------*- C++ -*----------------------------------*\
| =========                 |                                                 |
| \\      /  F ield         | OpenFOAM: The Open Source CFD Toolbox           |
|  \\    /   O peration     | Version:  v1812                                 |
|   \\  /    A nd           | Web:      www.OpenFOAM.com                      |
|    \\/     M anipulation  |                                                 |
\*---------------------------------------------------------------------------*/
FoamFile
{
    version     2.0;
    format      ascii;
    class       polyBoundaryMesh;
    location    "constant/polyMesh";
    object      boundary;
}
// * * * * * * * * * * * * * * * * * * * * * * * * * * * * * * * * * * * * * //

8
(
    b2-symmetry1
    {
        type            symmetry;
        inGroups        1(symmetry);
        nFaces          11031;
        startFace       21847;
    }
    b3-symmetry2
    {
        type            symmetry;
        inGroups        1(symmetry);
        nFaces          11031;
        startFace       32878;
    }
    b4-inlet
    {
        type            patch;
        physicalType    patch;
        nFaces          0;
        startFace       43909;
    }
    b5-outlet
    {
        type            patch;
        physicalType    patch;
        nFaces          0;
        startFace       43909;
    }
    b6-humpWall
    {
        type            wall;
        inGroups        1(wall);
        nFaces          101;
        startFace       43909;
    }
    b7-topWall
    {
        type            wall;
        inGroups        1(wall);
        nFaces          97;
        startFace       44010;
    }
    procBoundary1to0
    {
        type            processor;
        inGroups        1(processor);
        nFaces          121;
        startFace       44107;
        matchTolerance  0.0001;
        transform       unknown;
        myProcNo        1;
        neighbProcNo    0;
    }
    procBoundary1to3
    {
        type            processor;
        inGroups        1(processor);
        nFaces          111;
        startFace       44228;
        matchTolerance  0.0001;
        transform       unknown;
        myProcNo        1;
        neighbProcNo    3;
    }
)

// ************************************************************************* //
