/*--------------------------------*- C++ -*----------------------------------*\
| =========                 |                                                 |
| \\      /  F ield         | OpenFOAM: The Open Source CFD Toolbox           |
|  \\    /   O peration     | Version:  v1812                                 |
|   \\  /    A nd           | Web:      www.OpenFOAM.com                      |
|    \\/     M anipulation  |                                                 |
\*---------------------------------------------------------------------------*/
FoamFile
{
    version     2.0;
    format      ascii;
    class       polyBoundaryMesh;
    location    "constant/polyMesh";
    object      boundary;
}
// * * * * * * * * * * * * * * * * * * * * * * * * * * * * * * * * * * * * * //

7
(
    b2-symmetry1
    {
        type            symmetry;
        inGroups        1(symmetry);
        nFaces          10965;
        startFace       21711;
    }
    b3-symmetry2
    {
        type            symmetry;
        inGroups        1(symmetry);
        nFaces          10965;
        startFace       32676;
    }
    b4-inlet
    {
        type            patch;
        physicalType    patch;
        nFaces          0;
        startFace       43641;
    }
    b5-outlet
    {
        type            patch;
        physicalType    patch;
        nFaces          108;
        startFace       43641;
    }
    b6-humpWall
    {
        type            wall;
        inGroups        1(wall);
        nFaces          101;
        startFace       43749;
    }
    b7-topWall
    {
        type            wall;
        inGroups        1(wall);
        nFaces          108;
        startFace       43850;
    }
    procBoundary0to1
    {
        type            processor;
        inGroups        1(processor);
        nFaces          121;
        startFace       43958;
        matchTolerance  0.0001;
        transform       unknown;
        myProcNo        0;
        neighbProcNo    1;
    }
)

// ************************************************************************* //
