/*--------------------------------*- C++ -*----------------------------------*\
| =========                 |                                                 |
| \\      /  F ield         | OpenFOAM: The Open Source CFD Toolbox           |
|  \\    /   O peration     | Version:  v1812                                 |
|   \\  /    A nd           | Web:      www.OpenFOAM.com                      |
|    \\/     M anipulation  |                                                 |
\*---------------------------------------------------------------------------*/
FoamFile
{
    version     2.0;
    format      ascii;
    class       polyBoundaryMesh;
    location    "constant/polyMesh";
    object      boundary;
}
// * * * * * * * * * * * * * * * * * * * * * * * * * * * * * * * * * * * * * //

8
(
    b2-symmetry1
    {
        type            symmetry;
        inGroups        1(symmetry);
        nFaces          11121;
        startFace       22024;
    }
    b3-symmetry2
    {
        type            symmetry;
        inGroups        1(symmetry);
        nFaces          11121;
        startFace       33145;
    }
    b4-inlet
    {
        type            patch;
        physicalType    patch;
        nFaces          0;
        startFace       44266;
    }
    b5-outlet
    {
        type            patch;
        physicalType    patch;
        nFaces          0;
        startFace       44266;
    }
    b6-humpWall
    {
        type            wall;
        inGroups        1(wall);
        nFaces          110;
        startFace       44266;
    }
    b7-topWall
    {
        type            wall;
        inGroups        1(wall);
        nFaces          93;
        startFace       44376;
    }
    procBoundary3to1
    {
        type            processor;
        inGroups        1(processor);
        nFaces          111;
        startFace       44469;
        matchTolerance  0.0001;
        transform       unknown;
        myProcNo        3;
        neighbProcNo    1;
    }
    procBoundary3to2
    {
        type            processor;
        inGroups        1(processor);
        nFaces          122;
        startFace       44580;
        matchTolerance  0.0001;
        transform       unknown;
        myProcNo        3;
        neighbProcNo    2;
    }
)

// ************************************************************************* //
