/*--------------------------------*- C++ -*----------------------------------*\
| =========                 |                                                 |
| \\      /  F ield         | OpenFOAM: The Open Source CFD Toolbox           |
|  \\    /   O peration     | Version:  plus                                  |
|   \\  /    A nd           | Web:      www.OpenFOAM.org                      |
|    \\/     M anipulation  |                                                 |
\*---------------------------------------------------------------------------*/
FoamFile
{
    version     2.0;
    format      ascii;
    class       volScalarField;
    location    "0";
    object      k;
}
// * * * * * * * * * * * * * * * * * * * * * * * * * * * * * * * * * * * * * //

dimensions      [0 2 -2 0 0 0 0];

internalField   uniform 1.0684e-07;

boundaryField
{
    b4-inlet
    {
        type            fixedValue; 
        value           $internalField;

    }
    b5-outlet
    {
        type            zeroGradient;

    }
    b6-humpWall
    {
        type            fixedValue;
        value           uniform 1e-16;
    }
    b7-topWall
    {
        type            fixedValue;
        value           uniform 1e-16;    
    }
    b2-symmetry1
    {
        type            symmetry;
    }
    b3-symmetry2
    {
        type            symmetry;
    }
}



// ************************************************************************* //
