/*--------------------------------*- C++ -*----------------------------------*\
| =========                 |                                                 |
| \\      /  F ield         | OpenFOAM: The Open Source CFD Toolbox           |
|  \\    /   O peration     | Version:  plus                                  |
|   \\  /    A nd           | Web:      www.OpenFOAM.org                      |
|    \\/     M anipulation  |                                                 |
\*---------------------------------------------------------------------------*/
FoamFile
{
    version     2.0;
    format      ascii;
    class       volScalarField;
    location    "0";
    object      nuTilda;
}
// * * * * * * * * * * * * * * * * * * * * * * * * * * * * * * * * * * * * * //

dimensions      [0 2 -1 0 0 0 0];

internalField   uniform 1.1096826e-4; // 3*nu_inf

boundaryField
{
    b4-inlet
    {
        type            fixedValue;
        value           $internalField;

    }
    b5-outlet
    {
        type            inletOutlet;
        inletValue      $internalField;
        value           $internalField;

    }
    b6-humpWall
    {
        type            fixedValue;
        value           uniform 0;

    }
    b7-topWall
    {
        type            fixedValue;
        value           uniform 0; 

    }
    b2-symmetry1
    {
        type            symmetry;

    }
    b3-symmetry2
    {
        type            symmetry;

    }
}


// ************************************************************************* //
